Version 4
SHEET 1 880 680
WIRE 240 96 144 96
WIRE 336 96 320 96
WIRE 144 160 144 96
WIRE 192 160 144 160
WIRE 336 176 336 96
WIRE 336 176 256 176
WIRE 416 176 336 176
WIRE 192 192 64 192
FLAG 224 208 0
FLAG 224 64 0
FLAG 64 272 0
FLAG 64 96 0
DATAFLAG 160 192 ""
DATAFLAG 160 192 ""
DATAFLAG 160 192 ""
DATAFLAG 160 192 ""
SYMBOL voltage 224 160 R180
WINDOW 0 24 96 Left 2
WINDOW 3 24 16 Left 2
WINDOW 123 0 0 Left 2
WINDOW 39 0 0 Left 2
SYMATTR InstName V1
SYMATTR Value 5
SYMBOL voltage 64 176 R0
WINDOW 123 0 0 Left 2
WINDOW 39 0 0 Left 2
SYMATTR InstName V2
SYMATTR Value SINE(1.5 1 5)
SYMBOL res 160 80 R90
WINDOW 0 0 56 VBottom 2
WINDOW 3 32 56 VTop 2
SYMATTR InstName R2
SYMATTR Value 10k
SYMBOL res 336 80 R90
WINDOW 0 0 56 VBottom 2
WINDOW 3 32 56 VTop 2
SYMATTR InstName R3
SYMATTR Value 10k
SYMBOL LM358\\LM358 224 112 R0
SYMATTR InstName U1
TEXT 30 296 Left 2 !.tran 1
TEXT 408 120 Left 2 !.inc LM358.MOD
