Version 4
SHEET 1 880 680
WIRE 480 -48 432 -48
WIRE 608 -48 560 -48
WIRE 352 80 320 80
WIRE 432 80 432 -48
WIRE 448 80 432 80
WIRE 608 96 608 -48
WIRE 608 96 512 96
WIRE 704 96 608 96
WIRE 448 112 240 112
WIRE 320 224 320 80
FLAG -80 240 0
FLAG 16 240 0
FLAG -80 160 +2.5V
FLAG 16 160 -2.5V
FLAG 320 304 0
FLAG 480 64 +2.5V
FLAG 480 128 -2.5V
FLAG 240 192 0
FLAG 240 32 +2.5V
SYMBOL voltage -80 144 R0
WINDOW 123 0 0 Left 2
WINDOW 39 0 0 Left 2
SYMATTR InstName V1
SYMATTR Value 2.5
SYMBOL voltage 16 144 R0
WINDOW 123 0 0 Left 2
WINDOW 39 0 0 Left 2
SYMATTR InstName V2
SYMATTR Value -2.5
SYMBOL voltage 320 208 R0
WINDOW 123 0 0 Left 2
WINDOW 39 0 0 Left 2
SYMATTR InstName V3
SYMATTR Value SINE(1.55 0.95 1E6)
SYMBOL Opamps\\UniversalOpamp2 480 96 R0
SYMATTR InstName U1
SYMBOL res 576 -64 R90
WINDOW 0 0 56 VBottom 2
WINDOW 3 32 56 VTop 2
SYMATTR InstName 2.5k
SYMATTR Value 25k
SYMBOL res 448 64 R90
WINDOW 0 0 56 VBottom 2
WINDOW 3 32 56 VTop 2
SYMATTR InstName R2
SYMATTR Value 10k
SYMBOL res 224 16 R0
SYMATTR InstName R3
SYMATTR Value 100k
SYMBOL res 224 96 R0
SYMATTR InstName R4
SYMATTR Value 80k
TEXT -114 264 Left 2 !.tran 1e-5
