Version 4
SHEET 1 1308 1300
WIRE 16 -272 -64 -272
WIRE 16 -192 16 -272
WIRE 16 -48 16 -112
WIRE 176 -48 16 -48
WIRE 368 -48 256 -48
WIRE 464 -48 368 -48
WIRE 736 -48 544 -48
WIRE 16 -32 16 -48
WIRE 560 48 240 48
WIRE 816 48 688 48
WIRE 16 80 16 48
WIRE 368 80 368 -48
WIRE 560 80 368 80
WIRE 736 80 736 -48
WIRE 736 80 688 80
WIRE 1056 80 736 80
WIRE 560 112 368 112
WIRE 240 272 240 48
WIRE 464 272 240 272
WIRE 240 352 240 272
WIRE 16 400 -64 400
WIRE 16 480 16 400
WIRE 16 624 16 560
WIRE 272 624 16 624
WIRE 528 624 400 624
WIRE 16 640 16 624
WIRE 272 656 208 656
WIRE 432 656 400 656
WIRE 544 656 432 656
WIRE 688 656 624 656
WIRE 816 656 688 656
WIRE 1072 656 896 656
WIRE 272 688 80 688
WIRE 16 752 16 720
WIRE 208 768 208 656
WIRE 432 768 432 656
WIRE 432 768 208 768
WIRE 464 896 464 272
WIRE 736 896 464 896
WIRE 992 896 864 896
WIRE 688 928 688 656
WIRE 688 928 544 928
WIRE 736 928 688 928
WIRE 1072 928 1072 656
WIRE 1072 928 864 928
WIRE 1232 928 1072 928
WIRE 736 960 544 960
FLAG -80 240 0
FLAG 16 240 0
FLAG -80 160 +5
FLAG 16 160 -5
FLAG 240 432 0
FLAG -176 240 0
FLAG -176 160 +2.5
FLAG 16 80 0
FLAG -64 -272 +2.5
FLAG 816 48 -5
FLAG 368 112 +5
FLAG 1056 160 0
FLAG 16 752 0
FLAG -64 400 +2.5
FLAG 992 896 -5
FLAG 544 960 +5
FLAG 1232 1008 0
FLAG 528 624 -5
FLAG 80 688 +5
SYMBOL voltage -80 144 R0
WINDOW 123 0 0 Left 2
WINDOW 39 0 0 Left 2
SYMATTR InstName V1
SYMATTR Value 5
SYMBOL voltage 16 144 R0
WINDOW 123 0 0 Left 2
WINDOW 39 0 0 Left 2
SYMATTR InstName V2
SYMATTR Value -5
SYMBOL voltage 240 336 R0
WINDOW 123 0 0 Left 2
WINDOW 39 0 0 Left 2
SYMATTR InstName V3
SYMATTR Value SINE(1.55 0.95 2e4)
SYMBOL AutoGenerated\\ADA4807 624 80 R0
SYMATTR InstName U1
SYMBOL voltage -176 144 R0
WINDOW 123 0 0 Left 2
WINDOW 39 0 0 Left 2
SYMATTR InstName V4
SYMATTR Value 2.5
SYMBOL res 560 -64 R90
WINDOW 0 0 56 VBottom 2
WINDOW 3 32 56 VTop 2
SYMATTR InstName R1
SYMATTR Value 10k
SYMBOL res 272 -64 R90
WINDOW 0 0 56 VBottom 2
WINDOW 3 32 56 VTop 2
SYMATTR InstName R2
SYMATTR Value 2408
SYMBOL res 32 -96 R180
WINDOW 0 36 76 Left 2
WINDOW 3 36 40 Left 2
SYMATTR InstName R3
SYMATTR Value 201
SYMBOL res 32 64 R180
WINDOW 0 36 76 Left 2
WINDOW 3 36 40 Left 2
SYMATTR InstName R4
SYMATTR Value 600
SYMBOL res 1040 64 R0
SYMATTR InstName R5
SYMATTR Value 100k
SYMBOL AutoGenerated\\ADA4807 800 928 R0
SYMATTR InstName U2
SYMBOL res 1216 912 R0
SYMATTR InstName R10
SYMATTR Value 100k
SYMBOL AutoGenerated\\ADA4807 336 656 R0
SYMATTR InstName U3
SYMBOL res 640 640 R90
WINDOW 0 0 56 VBottom 2
WINDOW 3 32 56 VTop 2
SYMATTR InstName R6
SYMATTR Value 2.7k
SYMBOL res 912 640 R90
WINDOW 0 0 56 VBottom 2
WINDOW 3 32 56 VTop 2
SYMATTR InstName R7
SYMATTR Value 10k
SYMBOL res 0 464 R0
SYMATTR InstName R8
SYMATTR Value 500
SYMBOL res 0 624 R0
SYMATTR InstName R9
SYMATTR Value 1.7k
TEXT -210 1032 Left 2 !.tran 1
