Version 4
SHEET 1 880 680
WIRE 240 48 176 48
WIRE 336 48 320 48
WIRE -16 112 -16 48
WIRE 32 112 -16 112
WIRE 144 112 112 112
WIRE 224 144 224 128
WIRE -304 160 -304 144
WIRE 144 160 144 112
WIRE 160 160 144 160
WIRE 176 160 176 48
WIRE 192 160 176 160
WIRE 176 176 176 160
WIRE 176 176 144 176
WIRE 336 176 336 48
WIRE 336 176 256 176
WIRE 416 176 336 176
WIRE 32 192 -16 192
WIRE 144 192 144 176
WIRE 144 192 112 192
WIRE 160 192 160 160
WIRE 192 192 160 192
WIRE -16 224 -16 192
FLAG 224 208 0
FLAG -304 240 0
FLAG 224 128 3.3V
FLAG -304 144 3.3V
FLAG -16 304 0
FLAG -208 240 0
FLAG -208 160 12V
FLAG -16 48 12V
FLAG 160 272 0
SYMBOL res 336 32 R90
WINDOW 0 0 56 VBottom 2
WINDOW 3 32 56 VTop 2
SYMATTR InstName R3
SYMATTR Value 2.5k
SYMBOL LM358\\LM358 224 112 R0
SYMATTR InstName U1
SYMBOL voltage -304 144 R0
WINDOW 123 0 0 Left 2
WINDOW 39 0 0 Left 2
SYMATTR InstName V1
SYMATTR Value 3.3
SYMBOL res 128 96 R90
WINDOW 0 0 56 VBottom 2
WINDOW 3 32 56 VTop 2
SYMATTR InstName R4
SYMATTR Value 50k
SYMBOL res -32 96 R0
SYMATTR InstName R5
SYMATTR Value 0.05
SYMBOL res -32 208 R0
SYMATTR InstName R6
SYMATTR Value 2.5
SYMBOL voltage -208 144 R0
WINDOW 123 0 0 Left 2
WINDOW 39 0 0 Left 2
SYMATTR InstName V2
SYMATTR Value PWL(0 12 1 0)
SYMBOL res 144 176 R0
SYMATTR InstName R1
SYMATTR Value 10k
SYMBOL res 128 176 R90
WINDOW 0 0 56 VBottom 2
WINDOW 3 32 56 VTop 2
SYMATTR InstName R2
SYMATTR Value 50k
TEXT 30 296 Left 2 !.tran 1
TEXT 408 120 Left 2 !.inc LM358.MOD
