Version 4
SHEET 1 1016 680
WIRE 256 16 256 -48
WIRE 336 16 256 16
WIRE 336 32 336 16
WIRE 800 48 800 -16
WIRE 336 96 256 96
WIRE 256 128 256 96
WIRE 752 128 256 128
WIRE 256 176 256 128
WIRE 800 192 800 144
WIRE 960 192 800 192
WIRE 96 224 96 144
WIRE 192 224 96 224
FLAG 256 272 0
FLAG 256 -48 3.7V
FLAG 96 -16 0
FLAG 560 -16 0
FLAG 560 -96 3.7V
FLAG 800 -16 12V
FLAG 672 -16 0
FLAG 672 -96 12V
FLAG 960 272 0
SYMBOL npn 192 176 R0
SYMATTR InstName Q1
SYMBOL res 240 0 R0
SYMATTR InstName R1
SYMATTR Value 51k
SYMBOL res 80 48 R0
SYMATTR InstName R2
SYMATTR Value 51k
SYMBOL voltage 96 80 R180
WINDOW 0 24 96 Left 2
WINDOW 3 24 16 Left 2
WINDOW 123 0 0 Left 2
WINDOW 39 0 0 Left 2
SYMATTR InstName V1
SYMATTR Value PULSE(0 36 0 0 0 0.05 0.1 10)
SYMBOL voltage 560 -112 R0
WINDOW 123 0 0 Left 2
WINDOW 39 0 0 Left 2
SYMATTR InstName V2
SYMATTR Value 3.7
SYMBOL cap 320 32 R0
SYMATTR InstName C1
SYMATTR Value 200nF
SYMBOL nmos 752 48 R0
SYMATTR InstName M1
SYMATTR Value IRF8721
SYMBOL voltage 672 -112 R0
WINDOW 123 0 0 Left 2
WINDOW 39 0 0 Left 2
SYMATTR InstName V3
SYMATTR Value 12V
SYMBOL res 944 176 R0
SYMATTR InstName R3
SYMATTR Value 10
TEXT -256 296 Left 2 !.tran 1
