Version 4
SHEET 1 880 680
WIRE 192 -160 80 -160
WIRE 80 -112 80 -160
WIRE 192 48 192 -160
WIRE 400 128 192 128
WIRE -48 176 -160 176
WIRE 128 176 32 176
FLAG -160 256 0
FLAG 192 224 0
FLAG 80 -32 0
FLAG 400 208 0
SYMBOL npn 128 128 R0
SYMATTR InstName Q1
SYMATTR Value 2SCR514P
SYMBOL res 48 160 R90
WINDOW 0 0 56 VBottom 2
WINDOW 3 32 56 VTop 2
SYMATTR InstName R1
SYMATTR Value 51k
SYMBOL voltage -160 160 R0
WINDOW 123 0 0 Left 2
WINDOW 39 0 0 Left 2
SYMATTR InstName V1
SYMATTR Value PULSE(0 36 0 0 0 0.05 0.1)
SYMBOL voltage 80 -128 R0
WINDOW 123 0 0 Left 2
WINDOW 39 0 0 Left 2
SYMATTR InstName V2
SYMATTR Value 4.2
SYMBOL res 384 112 R0
SYMATTR InstName R3
SYMATTR Value 120k
SYMBOL res 176 32 R0
SYMATTR InstName R2
SYMATTR Value 51k
TEXT -194 280 Left 2 !.tran 0.2
